%nprocshared=32
%mem=192GB
%chk=roughopt.chk
# HF/STO-3G opt geom=connectivity

water HF/STO-3G rough geometry optimization

0 1
O      0.000000     0.250900     0.000000
H      0.960000     0.250900     0.000000
H     -0.320500     1.155800     0.000000

1 2 1.0 3 1.0
2
3


--link1--
%nprocshared=32
%mem=192GB
%oldchk=roughopt.chk
%chk=optfreq.chk
# B3LYP/6-31G(d,p) opt freq geom=allcheck

water B3LYP/6-31G(d,p) opt freq

0 1



--link1--
%nprocshared=32
%mem=192GB
%oldchk=optfreq.chk
%chk=tzvp_opt.chk
# B3LYP/TZVP opt em=GD3BJ geom=allcheck

water B3LYP/TZVP geometry optimization

0 1



--link1--
%nprocshared=32
%mem=192GB
%oldchk=tzvp_opt.chk
%chk=SP_VAC.chk
# B3LYP/def2TZVP em=GD3BJ geom=allcheck

water B3LYP/def2TZVP single point energy in vacuum

0 1



--link1--
%nprocshared=32
%mem=192GB
%oldchk=tzvp_opt.chk
%chk=SP_water.chk
# B3LYP/def2TZVP em=GD3BJ scrf=(solvent=water) geom=allcheck

water B3LYP/def2TZVP single point energy in water

0 1


