%chk=benzonitrile_GV.chk
# hf/3-21g geom=connectivity

Title Card Required

0 1
 C                  0.22170000    1.21210000   -0.02310000
 C                  1.61690000    1.20340000    0.01960000
 C                  2.30630000   -0.00910000    0.04750000
 C                  1.60490000   -1.21440000    0.01870000
 C                  0.20970000   -1.20910000   -0.02600000
 C                 -0.48590000    0.00500000   -0.03660000
 C                 -1.91850000    0.01120000   -0.04070000
 N                 -3.07990000    0.01510000   -0.03100000
 H                 -0.30740000    2.16310000   -0.03860000
 H                  2.16670000    2.14150000    0.03720000
 H                  3.39290000   -0.01460000    0.09320000
 H                  2.14490000   -2.15820000    0.03680000
 H                 -0.32900000   -2.15440000   -0.04510000

 1 2 1.0 6 2.0 9 1.0
 2 3 2.0 10 1.0
 3 4 1.0 11 1.0
 4 5 2.0 12 1.0
 5 6 1.0 13 1.0
 6 7 1.0
 7 8 3.0
 8
 9
 10
 11
 12
 13

